[General]
network = Network
sim-time-limit = 60s
simtime-resolution = ps
